****************************************************************************
* Copyright(c) Symmetry Design Systems. All rights reserved.
* Contains proprietary information which is the Property of Symmetry or its licensors.
* Distributed as part of the Volta software (kulfx.com/volta) with permission of ON Semiconductor (onsemi.com).
****************************************************************************

.MODEL ON.Semiconductor.1n4004rl d
+IS=5.31656e-08 RS=0.0392384 N=2 EG=0.6
+XTI=0.05 BV=400 IBV=5e-08 CJO=1e-11
+VJ=0.7 M=0.5 FC=0.5 TT=1e-09
+KF=0 AF=1
* Model generated on October 12, 2003
* Model format: SPICE3

.MODEL ON.Semiconductor.1n5401rl d
+IS=2.61339e-12 RS=0.0110501 N=1.20576 EG=0.6
+XTI=3.1271 BV=100 IBV=1e-05 CJO=1e-11
+VJ=0.7 M=0.5 FC=0.5 TT=1e-09
+KF=0 AF=1
* Model generated on October 12, 2003
* Model format: SPICE3

.MODEL ON.Semiconductor.1n5402rl d
+IS=2.61339e-12 RS=0.0110501 N=1.20576 EG=0.6
+XTI=3.1271 BV=200 IBV=1e-05 CJO=1e-11
+VJ=0.7 M=0.5 FC=0.5 TT=1e-09
+KF=0 AF=1
* Model generated on October 12, 2003
* Model format: SPICE3

.MODEL ON.Semiconductor.1n5408rl d
+IS=2.61228e-12 RS=0.0110504 N=1.20575 EG=0.600006
+XTI=3.1271 BV=1000 IBV=1e-05 CJO=1e-11
+VJ=0.7 M=0.5 FC=0.5 TT=1e-09
+KF=0 AF=1
* Model generated on October 12, 2003
* Model format: SPICE3

.MODEL ON.Semiconductor.2n3055 npn
+IS=2.37426e-14 BF=129.119 NF=0.85 VAF=31.1252
+IKF=0.990922 ISE=2.47498e-10 NE=1.89002 BR=1.01252
+NR=0.924456 VAR=254.624 IKR=2.70227 ISC=2.47498e-10
+NC=2.90624 RB=3.66609 IRB=0.1 RBM=0.1
+RE=0.000352673 RC=0.0764459 XTB=1.34801 XTI=1.07207
+EG=1.206 CJE=9.03089e-08 VJE=0.513954 MJE=0.59999
+TF=1e-08 XTF=1.36696 VTF=1.02605 ITF=0.987296
+CJC=5e-10 VJC=0.400243 MJC=0.410238 XCJC=0.803124
+FC=0.661216 CJS=0 VJS=0.75 MJS=0.5
+TR=1e-07 PTF=0 KF=0 AF=1
* Model generated on Jan 24, 2004
* Model format: SPICE3

.MODEL ON.Semiconductor.2n3904 npn
+IS=1.26532e-10 BF=206.302 NF=1.5 VAF=1000
+IKF=0.0272221 ISE=2.30771e-09 NE=3.31052 BR=20.6302
+NR=2.89609 VAR=9.39809 IKR=0.272221 ISC=2.30771e-09
+NC=1.9876 RB=5.8376 IRB=50.3624 RBM=0.634251
+RE=0.0001 RC=2.65711 XTB=0.1 XTI=1
+EG=1.05 CJE=4.64214e-12 VJE=0.4 MJE=0.256227
+TF=4.19578e-10 XTF=0.906167 VTF=8.75418 ITF=0.0105823
+CJC=3.76961e-12 VJC=0.4 MJC=0.238109 XCJC=0.8
+FC=0.512134 CJS=0 VJS=0.75 MJS=0.5
+TR=6.82023e-08 PTF=0 KF=0 AF=1
* Model generated on Aug 07, 01
* MODEL FORMAT: SPICE3

.MODEL ON.Semiconductor.bc547b npn
+IS=7.443e-11 BF=1343.59 NF=1.42606 VAF=80.4901
+IKF=0.427163 ISE=2.4623e-10 NE=2.73946 BR=62.79
+NR=1.5 VAR=1.0092 IKR=4.27163 ISC=2.4623e-10
+NC=1.9119 RB=0.1 IRB=0.1 RBM=0.1
+RE=0.579065 RC=3.01102 XTB=0.1 XTI=2.25359
+EG=1.05 CJE=7.34106e-12 VJE=0.586136 MJE=0.33309
+TF=5.7202e-10 XTF=4.45797 VTF=26.03 ITF=0.487193
+CJC=4.04665e-12 VJC=0.95 MJC=0.343664 XCJC=0.799994
+FC=0.8 CJS=0 VJS=0.75 MJS=0.5
+TR=1e-07 PTF=0 KF=0 AF=1
* Model generated on May 12, 05
* MODEL FORMAT: SPICE3

.MODEL ON.Semiconductor.bc557b pnp
+IS=1.68077e-12 BF=3385 NF=1.2121 VAF=196.745
+IKF=1.30809 ISE=1.76095e-13 NE=1.56412 BR=99.5231
+NR=1.23271 VAR=0.978236 IKR=10 ISC=1.76095e-13
+NC=1.21727 RB=17.2944 IRB=0.1 RBM=0.1
+RE=0.354597 RC=1.77298 XTB=0.100946 XTI=1
+EG=1.05 CJE=1.13417e-11 VJE=0.654776 MJE=0.23
+TF=5.99604e-10 XTF=1000 VTF=3935.03 ITF=31.8969
+CJC=9.54039e-12 VJC=0.4 MJC=0.408114 XCJC=0.910091
+FC=0.8 CJS=0 VJS=0.75 MJS=0.5
+TR=1e-07 PTF=0 KF=0 AF=1
* Model generated on May 13, 05
* MODEL FORMAT: SPICE3

.MODEL ON.Semiconductor.bd139 npn
+IS=1e-09 BF=222.664 NF=0.85 VAF=36.4079
+IKF=0.166126 ISE=5.03418e-09 NE=1.45313 BR=1.35467
+NR=1.33751 VAR=142.931 IKR=1.66126 ISC=5.02557e-09
+NC=3.10227 RB=26.9143 IRB=0.1 RBM=0.1
+RE=0.000472454 RC=1.04109 XTB=0.727762 XTI=1.04311
+EG=1.05 CJE=1e-11 VJE=0.75 MJE=0.33
+TF=1e-09 XTF=1 VTF=10 ITF=0.01
+CJC=1e-11 VJC=0.75 MJC=0.33 XCJC=0.9
+FC=0.5 CJS=0 VJS=0.75 MJS=0.5
+TR=1e-07 PTF=0 KF=0 AF=1
* Model generated on Feb 14, 2004
* Model format: SPICE3

.MODEL ON.Semiconductor.bd140 pnp
+IS=1e-09 BF=650.842 NF=0.85 VAF=10
+IKF=0.0950125 ISE=1e-08 NE=1.54571 BR=56.177
+NR=1.5 VAR=2.11267 IKR=0.950125 ISC=1e-08
+NC=3.58527 RB=41.7566 IRB=0.1 RBM=0.108893
+RE=0.000347052 RC=1.32566 XTB=19.5239 XTI=1
+EG=1.05 CJE=1e-11 VJE=0.75 MJE=0.33
+TF=1e-09 XTF=1 VTF=10 ITF=0.01
+CJC=1e-11 VJC=0.75 MJC=0.33 XCJC=0.9
+FC=0.5 CJS=0 VJS=0.75 MJS=0.5
+TR=1e-07 PTF=0 KF=0 AF=1
* Model generated on Feb 14, 2004
* Model format: SPICE3

